Version 4
SHEET 1 880 680
WIRE 160 144 32 144
WIRE 320 144 240 144
WIRE -128 160 -176 160
WIRE -176 176 -176 160
WIRE -560 224 -560 160
WIRE -208 192 -368 192
WIRE 160 192 112 192
WIRE -80 208 -144 208
WIRE 32 208 32 144
WIRE 32 208 0 208
WIRE 80 208 32 208
WIRE -208 224 -240 224
WIRE 320 224 320 144
WIRE 320 224 144 224
WIRE -128 240 -176 240
WIRE 80 240 32 240
WIRE 160 256 112 256
WIRE -240 320 -240 224
WIRE -80 320 -80 208
WIRE -80 320 -240 320
WIRE 32 336 32 240
WIRE 160 336 32 336
WIRE 320 336 320 224
WIRE 320 336 240 336
SYMBOL Opamps\\UniversalOpamp2 112 224 M180
SYMATTR InstName U1
SYMBOL cktsym\\vsource -688 32 R0
SYMATTR Value 3.3
SYMATTR InstName V1
SYMBOL res 16 192 R90
WINDOW 0 0 56 VBottom 2
WINDOW 3 32 56 VTop 2
SYMATTR InstName R1
SYMATTR Value 6340
SYMATTR SpiceLine tol=1
SYMBOL res 256 128 R90
WINDOW 0 0 56 VBottom 2
WINDOW 3 32 56 VTop 2
SYMATTR InstName R2
SYMATTR Value 20000
SYMATTR SpiceLine tol=1
SYMBOL res 256 320 R90
WINDOW 0 0 56 VBottom 2
WINDOW 3 32 56 VTop 2
SYMATTR InstName R3
SYMATTR Value {R3}
SYMATTR SpiceLine tol=1
SYMBOL cktsym\\gnd 160 192 R0
SYMATTR InstName U3
SYMBOL cktsym\\gnd -688 96 R0
SYMATTR InstName U4
SYMBOL cktsym\\vdd -688 -32 R0
SYMATTR InstName U6
SYMBOL cktsym\\vdd 160 256 R0
SYMATTR InstName U7
SYMBOL cap 16 336 R0
SYMATTR InstName C1
SYMATTR Value {C1}
SYMBOL cktsym\\gnd 32 400 R0
SYMATTR InstName U2
SYMBOL res -576 208 R0
SYMATTR InstName R4
SYMATTR Value 1270
SYMATTR SpiceLine tol=1
SYMBOL res -576 64 R0
SYMATTR InstName R5
SYMATTR Value 1270
SYMATTR SpiceLine tol=1
SYMBOL cktsym\\vdd -560 80 R0
SYMATTR InstName U5
SYMBOL cktsym\\gnd -560 304 R0
SYMATTR InstName U8
SYMBOL Opamps\\UniversalOpamp2 -176 208 M180
SYMATTR InstName U9
SYMBOL cktsym\\gnd -128 160 R0
SYMATTR InstName U10
SYMBOL cktsym\\vdd -128 240 R0
SYMATTR InstName U11
TEXT -128 504 Left 2 !.include engr2420.sub
TEXT -128 544 Left 2 !.tran 0 14 9 0.01
TEXT -136 592 Left 2 !.step param C1 0.095u .105u 0.005u
TEXT -136 624 Left 2 !.step param R3 9500000 10500000 500000
